data/case3_4wire_kron.dss
! This case is designed to test a 3-phase, wye-connected generator

Clear

New Circuit.Test phases=3 basekv=0.4 baseMVA=0.2 bus1=B1 MVASC1=1e6 MVASC3=1e6

New Linecode.Zabcn units=km nphases=4
~ rmatrix=(0.227217624 0.059217624 0.059217624 0.059217624 |0.059217624 0.227217624 0.059217624 0.059217624 |0.059217624 0.059217624 0.227217624 0.059217624 |0.059217624 0.059217624 0.059217624 0.227217624)
~ xmatrix=(0.879326005 0.541069709 0.475545802 0.449141163 |0.541069709 0.879326005 0.516533439 0.475545802 |0.475545802 0.516533439 0.879326005 0.541069709 |0.449141163 0.475545802 0.541069709 0.879326005)
~ cmatrix=(0 | 0 0 | 0 0 0 | 0 0 0 0)
~ Rg = 0
~ Xg = 0

New Linecode.Zabc units=km nphases=3
~ rmatrix=(0.211784   0.0437843  0.0437843 | 0.0437843  0.211784   0.0437843 | 0.0437843  0.0437843  0.211784)
~ xmatrix=(0.649914  0.311658  0.246134 | 0.283891  0.622147  0.259355 | 0.142613  0.183601  0.546393)
~ cmatrix=(0 | 0 0 | 0 0 0)
~ Rg = 0
~ Xg = 0

New Line.Line1 bus1=B1.1.2.3 bus2=B2.1.2.3 linecode=Zabc length=0.1 units=km

New Load.Load1   phases=1 conn=wye bus1=B2.1 kv=0.23  model=1  kVA=25  pf=0.9 vminpu=0.1 vmaxpu=2

New PVSystem.PV1 phases=1 conn=wye bus1=B2.2 kv=0.23 kva=25 pf=1.0

New PVSystem.PV2 phases=1 conn=wye bus1=B2.3 kv=0.23 kva=25 pf=1.0


Set voltagebases=[0.4]
Calcvoltagebases

Solve

// Dump debug